304

  N  -8.901000   4.127000  -0.555000
  C  -8.608000   3.135000  -1.618000
  C  -7.117000   2.964000  -1.897000
  O  -6.634000   1.849000  -1.758000
  C  -9.437000   3.396000  -2.889000
  C -10.915000   3.130000  -2.611000
  O -11.269000   2.700000  -1.524000
  N -11.806000   3.406000  -3.543000
  H  -8.330000   3.957000   0.261000
  H  -8.740000   5.068000  -0.889000
  H  -9.877000   4.041000  -0.293000
  H  -8.930000   2.162000  -1.239000
  H  -9.310000   4.417000  -3.193000
  H  -9.108000   2.719000  -3.679000
  H -11.572000   3.791000  -4.444000
  H -12.757000   3.183000  -3.294000
  N  -6.379000   4.031000  -2.228000
  C  -4.923000   4.002000  -2.452000
  C  -4.136000   3.187000  -1.404000
  O  -3.391000   2.274000  -1.760000
  C  -4.411000   5.450000  -2.619000
  C  -4.795000   6.450000  -1.495000
  C  -3.612000   6.803000  -0.599000
  C  -5.351000   7.748000  -2.084000
  H  -6.821000   4.923000  -2.394000
  H  -4.750000   3.494000  -3.403000
  H  -3.340000   5.414000  -2.672000
  H  -4.813000   5.817000  -3.564000
  H  -5.568000   6.022000  -0.858000
  H  -3.207000   5.905000  -0.146000
  H  -2.841000   7.304000  -1.183000
  H  -3.929000   7.477000   0.197000
  H  -4.607000   8.209000  -2.736000
  H  -6.255000   7.544000  -2.657000
  H  -5.592000   8.445000  -1.281000
  N  -4.354000   3.455000  -0.111000
  C  -3.690000   2.738000   0.981000
  C  -4.102000   1.256000   1.074000
  O  -3.291000   0.409000   1.442000
  C  -3.964000   3.472000   2.302000
  C  -2.824000   3.339000   3.290000
  C  -2.746000   2.217000   4.138000
  C  -1.820000   4.326000   3.332000
  C  -1.657000   2.076000   5.018000
  C  -0.725000   4.185000   4.205000
  C  -0.639000   3.053000   5.043000
  O   0.433000   2.881000   5.861000
  H  -4.934000   4.245000   0.120000
  H  -2.615000   2.768000   0.796000
  H  -4.117000   4.513000   2.091000
  H  -4.886000   3.096000   2.750000
  H  -3.513000   1.456000   4.101000
  H  -1.877000   5.200000   2.695000
  H  -1.576000   1.221000   5.669000
  H   0.033000   4.952000   4.233000
  H   1.187000   3.395000   5.567000
  N  -5.342000   0.925000   0.689000
  C  -5.857000  -0.449000   0.613000
  C  -5.089000  -1.221000  -0.470000
  O  -4.621000  -2.334000  -0.226000
  C  -7.386000  -0.466000   0.343000
  C  -8.197000   0.540000   1.197000
  C  -7.959000  -1.884000   0.501000
  C  -8.019000   0.412000   2.715000
  H  -5.906000   1.656000   0.283000
  H  -5.670000  -0.941000   1.568000
  H  -7.554000  -0.192000  -0.697000
  H  -7.900000   1.531000   0.912000
  H  -9.257000   0.424000   0.964000
  H  -7.509000  -2.555000  -0.232000
  H  -7.759000  -2.271000   1.501000
  H  -9.036000  -1.871000   0.332000
  H  -8.306000  -0.585000   3.049000
  H  -6.983000   0.606000   2.995000
  H  -8.656000   1.144000   3.213000
  N  -4.907000  -0.601000  -1.645000
  C  -4.122000  -1.167000  -2.743000
  C  -2.629000  -1.321000  -2.390000
  O  -1.986000  -2.240000  -2.884000
  C  -4.292000  -0.313000  -4.013000
  C  -4.244000  -1.171000  -5.290000
  C  -5.576000  -1.860000  -5.585000
  O  -5.769000  -3.044000  -5.335000
  N  -6.532000  -1.146000  -6.152000
  H  -5.327000   0.318000  -1.763000
  H  -4.517000  -2.162000  -2.940000
  H  -5.238000   0.191000  -3.969000
  H  -3.492000   0.429000  -4.053000
  H  -3.993000  -0.539000  -6.120000
  H  -3.458000  -1.923000  -5.205000
  H  -6.389000  -0.184000  -6.408000
  H  -7.392000  -1.635000  -6.335000
  N  -2.074000  -0.459000  -1.528000
  C  -0.716000  -0.631000  -0.993000
  C  -0.631000  -1.766000   0.044000
  O   0.295000  -2.579000  -0.004000
  C  -0.221000   0.703000  -0.417000
  C   1.148000   0.652000   0.194000
  C   2.319000   0.664000  -0.482000
  C   1.508000   0.564000   1.606000
  N   3.371000   0.560000   0.411000
  C   2.928000   0.515000   1.710000
  C   0.779000   0.524000   2.812000
  C   3.599000   0.445000   2.938000
  C   1.439000   0.433000   4.053000
  C   2.842000   0.407000   4.120000
  H  -2.624000   0.343000  -1.242000
  H  -0.052000  -0.908000  -1.813000
  H  -0.206000   1.425000  -1.211000
  H  -0.921000   1.044000   0.344000
  H   2.412000   0.733000  -1.558000
  H   4.360000   0.536000   0.156000
  H  -0.299000   0.571000   2.773000
  H   4.679000   0.418000   2.961000
  H   0.862000   0.400000   4.966000
  H   3.334000   0.360000   5.081000
  N  -1.600000  -1.860000   0.967000
  C  -1.641000  -2.932000   1.963000
  C  -1.847000  -4.319000   1.342000
  O  -1.144000  -5.248000   1.742000
  C  -2.710000  -2.645000   3.033000
  C  -2.301000  -1.579000   4.069000
  C  -3.475000  -1.323000   5.018000
  C  -1.093000  -2.007000   4.914000
  H  -2.316000  -1.137000   0.994000
  H  -0.666000  -2.978000   2.445000
  H  -3.600000  -2.308000   2.537000
  H  -2.921000  -3.571000   3.572000
  H  -2.061000  -0.649000   3.560000
  H  -4.343000  -0.992000   4.449000
  H  -3.725000  -2.237000   5.560000
  H  -3.211000  -0.549000   5.739000
  H  -1.270000  -2.989000   5.354000
  H  -0.195000  -2.045000   4.300000
  H  -0.922000  -1.286000   5.712000
  N  -2.753000  -4.481000   0.360000
  C  -3.024000  -5.791000  -0.269000
  C  -1.796000  -6.427000  -0.937000
  O  -1.719000  -7.648000  -1.030000
  C  -4.224000  -5.697000  -1.232000
  C  -3.930000  -5.009000  -2.577000
  C  -3.682000  -5.986000  -3.736000
  C  -3.494000  -5.199000  -5.039000
  N  -4.563000  -5.483000  -6.023000
  H  -3.321000  -3.675000   0.097000
  H  -3.309000  -6.478000   0.529000
  H  -4.565000  -6.694000  -1.436000
  H  -5.019000  -5.143000  -0.731000
  H  -4.769000  -4.390000  -2.830000
  H  -3.062000  -4.368000  -2.469000
  H  -2.799000  -6.562000  -3.536000
  H  -4.524000  -6.674000  -3.818000
  H  -3.502000  -4.150000  -4.813000
  H  -2.511000  -5.439000  -5.457000
  H  -4.621000  -6.474000  -6.211000
  H  -5.442000  -5.124000  -5.657000
  H  -4.382000  -4.983000  -6.881000
  N  -0.828000  -5.607000  -1.355000
  C   0.466000  -6.016000  -1.905000
  C   1.481000  -6.464000  -0.832000
  O   2.545000  -6.971000  -1.194000
  C   1.033000  -4.839000  -2.724000
  C   0.672000  -4.906000  -4.210000
  O  -0.532000  -5.051000  -4.522000
  O   1.627000  -4.815000  -5.017000
  H  -1.010000  -4.616000  -1.291000
  H   0.319000  -6.867000  -2.574000
  H   0.644000  -3.924000  -2.320000
  H   2.116000  -4.837000  -2.650000
  N   1.185000  -6.278000   0.464000
  C   2.060000  -6.618000   1.593000
  C   2.628000  -5.412000   2.353000
  O   3.496000  -5.594000   3.208000
  H   0.265000  -5.908000   0.693000
  H   1.486000  -7.214000   2.304000
  H   2.897000  -7.228000   1.252000
  N   2.172000  -4.187000   2.055000
  C   2.626000  -2.967000   2.723000
  C   4.157000  -2.802000   2.654000
  O   4.710000  -2.829000   1.551000
  H   1.481000  -4.089000   1.319000
  H   2.164000  -2.109000   2.237000
  H   2.280000  -2.997000   3.753000
  N   4.871000  -2.651000   3.794000
  C   6.333000  -2.533000   3.806000
  C   7.058000  -3.729000   3.165000
  O   8.139000  -3.562000   2.601000
  C   6.740000  -2.387000   5.279000
  C   5.460000  -1.952000   5.987000
  C   4.362000  -2.615000   5.160000
  H   6.611000  -1.626000   3.267000
  H   7.091000  -3.323000   5.670000
  H   7.531000  -1.647000   5.403000
  H   5.443000  -2.302000   7.001000
  H   5.358000  -0.867000   5.929000
  H   4.173000  -3.609000   5.516000
  H   3.440000  -2.042000   5.246000
  N   6.463000  -4.929000   3.205000
  C   7.049000  -6.179000   2.704000
  C   6.897000  -6.369000   1.185000
  O   7.025000  -7.488000   0.697000
  C   6.458000  -7.371000   3.472000
  O   6.763000  -7.264000   4.850000
  H   5.535000  -4.999000   3.613000
  H   8.121000  -6.159000   2.903000
  H   5.393000  -7.382000   3.344000
  H   6.880000  -8.302000   3.093000
  H   7.707000  -7.394000   4.970000
  N   6.637000  -5.290000   0.434000
  C   6.389000  -5.315000  -1.015000
  C   7.332000  -4.405000  -1.823000
  O   7.082000  -4.123000  -2.993000
  C   4.914000  -4.993000  -1.265000
  O   4.431000  -5.743000  -2.358000
  H   6.509000  -4.415000   0.930000
  H   6.562000  -6.329000  -1.378000
  H   4.344000  -5.236000  -0.389000
  H   4.778000  -3.934000  -1.457000
  H   3.714000  -6.324000  -1.987000
  N   8.419000  -3.920000  -1.202000
  C   9.451000  -3.116000  -1.870000
  C   8.984000  -1.725000  -2.316000
  O   9.539000  -1.177000  -3.267000
  H   8.573000  -4.210000  -0.246000
  H  10.297000  -2.987000  -1.194000
  H   9.805000  -3.652000  -2.752000
  N   7.956000  -1.164000  -1.660000
  C   7.289000   0.084000  -2.054000
  C   6.855000   0.916000  -0.829000
  O   6.222000   0.366000   0.076000
  C   6.110000  -0.243000  -2.994000
  C   5.046000  -1.171000  -2.378000
  C   3.923000  -1.592000  -3.338000
  N   4.251000  -2.811000  -4.100000
  C   4.859000  -2.914000  -5.274000
  N   5.289000  -1.864000  -5.937000
  N   5.035000  -4.095000  -5.809000
  H   7.579000  -1.676000  -0.874000
  H   8.009000   0.663000  -2.630000
  H   5.634000   0.678000  -3.269000
  H   6.524000  -0.720000  -3.880000
  H   5.538000  -2.059000  -2.031000
  H   4.579000  -0.652000  -1.549000
  H   3.033000  -1.774000  -2.766000
  H   3.669000  -0.765000  -4.003000
  H   3.963000  -3.694000  -3.698000
  H   5.150000  -0.962000  -5.521000
  H   5.761000  -1.962000  -6.815000
  H   4.649000  -4.894000  -5.327000
  H   5.508000  -4.205000  -6.684000
  N   7.156000   2.230000  -0.780000
  C   6.782000   3.088000   0.345000
  C   5.261000   3.331000   0.395000
  O   4.586000   3.165000  -0.624000
  C   7.554000   4.394000   0.119000
  C   7.677000   4.474000  -1.401000
  C   7.820000   3.010000  -1.816000
  H   7.107000   2.628000   1.279000
  H   7.009000   5.234000   0.505000
  H   8.548000   4.308000   0.561000
  H   6.800000   4.914000  -1.836000
  H   8.540000   5.066000  -1.707000
  H   7.349000   2.844000  -2.766000
  H   8.876000   2.739000  -1.855000
  N   4.710000   3.739000   1.555000
  C   3.287000   4.031000   1.686000
  C   2.901000   5.305000   0.913000
  O   3.684000   6.256000   0.871000
  C   3.035000   4.190000   3.187000
  C   4.385000   4.655000   3.729000
  C   5.393000   3.949000   2.823000
  H   2.719000   3.181000   1.316000
  H   2.274000   4.924000   3.372000
  H   2.781000   3.223000   3.618000
  H   4.482000   5.721000   3.654000
  H   4.518000   4.377000   4.775000
  H   6.262000   4.562000   2.682000
  H   5.662000   2.983000   3.253000
  N   1.688000   5.360000   0.336000
  C   1.185000   6.543000  -0.353000
  C   0.715000   7.607000   0.655000
  O  -0.124000   7.324000   1.513000
  C   0.048000   6.014000  -1.229000
  C  -0.519000   4.852000  -0.412000
  C   0.716000   4.275000   0.272000
  H   1.961000   6.966000  -0.991000
  H  -0.697000   6.770000  -1.389000
  H   0.463000   5.630000  -2.162000
  H  -1.232000   5.201000   0.310000
  H  -1.019000   4.114000  -1.041000
  H   0.470000   3.937000   1.260000
  H   1.121000   3.461000  -0.329000
  N   1.271000   8.822000   0.549000
  C   0.852000  10.027000   1.285000
  C  -0.406000  10.657000   0.683000
  O  -0.387000  10.916000  -0.540000
  C   1.972000  11.071000   1.284000
  O   3.120000  10.541000   1.911000
  O  -1.341000  10.903000   1.473000
  H   1.969000   8.961000  -0.165000
  H   0.601000   9.760000   2.310000
  H   2.210000  11.338000   0.272000
  H   1.636000  11.959000   1.824000
  H   2.831000  10.040000   2.676000
